Version 4
SHEET 1 880 680
WIRE 384 -944 384 -1008
WIRE 384 -944 0 -944
WIRE 0 -864 0 -944
WIRE 64 -864 0 -864
WIRE -160 -800 -224 -800
WIRE -128 -800 -128 -832
WIRE -128 -800 -160 -800
WIRE 64 -800 -128 -800
WIRE 496 -800 352 -800
WIRE 432 -736 352 -736
WIRE -224 -720 -224 -736
WIRE -192 -720 -224 -720
WIRE -160 -720 -160 -736
WIRE -160 -720 -192 -720
WIRE -192 -704 -192 -720
WIRE 64 -672 0 -672
WIRE 432 -672 352 -672
WIRE 64 -608 0 -608
WIRE 608 -608 352 -608
WIRE -160 -544 -224 -544
WIRE -128 -544 -128 -560
WIRE -128 -544 -160 -544
WIRE 64 -544 -128 -544
WIRE 432 -544 352 -544
WIRE 432 -528 432 -544
WIRE 64 -480 -32 -480
WIRE 384 -480 384 -944
WIRE 384 -480 352 -480
WIRE 464 -480 384 -480
WIRE 528 -480 464 -480
WIRE -224 -464 -224 -480
WIRE -192 -464 -224 -464
WIRE -160 -464 -160 -480
WIRE -160 -464 -192 -464
WIRE -192 -448 -192 -464
WIRE -32 -400 -32 -416
WIRE 464 -400 464 -416
WIRE 496 -400 464 -400
WIRE 528 -400 528 -416
WIRE 528 -400 496 -400
WIRE 496 -384 496 -400
WIRE 416 -240 368 -240
WIRE 416 -192 416 -240
WIRE 368 -176 368 -240
WIRE 368 -176 -16 -176
WIRE -16 -96 -16 -176
WIRE 48 -96 -16 -96
WIRE 608 -96 608 -608
WIRE 608 -96 480 -96
WIRE -176 -32 -240 -32
WIRE -144 -32 -144 -64
WIRE -144 -32 -176 -32
WIRE 48 -32 -144 -32
WIRE 416 -32 416 -112
WIRE 416 -32 336 -32
WIRE 480 -32 480 -96
WIRE 480 -32 416 -32
WIRE 416 32 336 32
WIRE -240 48 -240 32
WIRE -208 48 -240 48
WIRE -176 48 -176 32
WIRE -176 48 -208 48
WIRE -208 64 -208 48
WIRE 48 96 -16 96
WIRE 416 96 336 96
WIRE 48 160 -16 160
WIRE 416 160 336 160
WIRE -176 224 -240 224
WIRE -144 224 -144 208
WIRE -144 224 -176 224
WIRE 48 224 -144 224
WIRE 416 224 336 224
WIRE 416 240 416 224
WIRE 48 288 -48 288
WIRE 368 288 368 -176
WIRE 368 288 336 288
WIRE 448 288 368 288
WIRE 512 288 448 288
WIRE -240 304 -240 288
WIRE -208 304 -240 304
WIRE -176 304 -176 288
WIRE -176 304 -208 304
WIRE -208 320 -208 304
WIRE -48 368 -48 352
WIRE 448 368 448 352
WIRE 480 368 448 368
WIRE 512 368 512 352
WIRE 512 368 480 368
WIRE 480 384 480 368
FLAG -208 64 0
FLAG -208 320 0
FLAG -48 368 0
FLAG 480 384 0
FLAG -16 96 V1
FLAG -16 160 V2
FLAG -144 -64 -15V
FLAG -144 208 +15V
FLAG 416 240 0
FLAG 416 160 Ard51
FLAG 416 96 Ard52
FLAG 416 32 Ard53
FLAG 368 -240 +5V
FLAG 480 -32 SDO
FLAG -192 -704 0
FLAG -192 -448 0
FLAG -32 -400 0
FLAG 496 -384 0
FLAG -128 -832 -15V
FLAG -128 -560 +15V
FLAG 432 -528 0
FLAG 432 -672 Ard52
FLAG 432 -736 Ard53
FLAG 384 -1008 +5V
FLAG 496 -800 SDO
FLAG 0 -672 V3
FLAG 0 -608 V4
SYMBOL Misc\\DIP14 192 0 R0
SYMATTR InstName U1
SYMBOL cap -160 32 R180
WINDOW 0 24 56 Left 2
WINDOW 3 24 8 Left 2
SYMATTR InstName C1
SYMATTR Value 0.1µ
SYMBOL cap -224 32 R180
WINDOW 0 24 56 Left 2
WINDOW 3 24 8 Left 2
SYMATTR InstName C2
SYMATTR Value 10µ
SYMBOL cap -160 288 R180
WINDOW 0 24 56 Left 2
WINDOW 3 24 8 Left 2
SYMATTR InstName C3
SYMATTR Value 0.1µ
SYMBOL cap -224 288 R180
WINDOW 0 24 56 Left 2
WINDOW 3 24 8 Left 2
SYMATTR InstName C4
SYMATTR Value 10µ
SYMBOL cap -64 288 R0
SYMATTR InstName C5
SYMATTR Value 1µ
SYMBOL cap 528 352 R180
WINDOW 0 24 56 Left 2
WINDOW 3 24 8 Left 2
SYMATTR InstName C6
SYMATTR Value 0.1µ
SYMBOL cap 464 352 R180
WINDOW 0 24 56 Left 2
WINDOW 3 24 8 Left 2
SYMATTR InstName C7
SYMATTR Value 10µ
SYMBOL res 400 -208 R0
SYMATTR InstName R1
SYMATTR Value 2.2k
SYMBOL Misc\\DIP14 208 -768 R0
SYMATTR InstName U2
SYMBOL cap -144 -736 R180
WINDOW 0 24 56 Left 2
WINDOW 3 24 8 Left 2
SYMATTR InstName C8
SYMATTR Value 0.1µ
SYMBOL cap -208 -736 R180
WINDOW 0 24 56 Left 2
WINDOW 3 24 8 Left 2
SYMATTR InstName C9
SYMATTR Value 10µ
SYMBOL cap -144 -480 R180
WINDOW 0 24 56 Left 2
WINDOW 3 24 8 Left 2
SYMATTR InstName C10
SYMATTR Value 0.1µ
SYMBOL cap -208 -480 R180
WINDOW 0 24 56 Left 2
WINDOW 3 24 8 Left 2
SYMATTR InstName C11
SYMATTR Value 10µ
SYMBOL cap -48 -480 R0
SYMATTR InstName C12
SYMATTR Value 1µ
SYMBOL cap 544 -416 R180
WINDOW 0 24 56 Left 2
WINDOW 3 24 8 Left 2
SYMATTR InstName C13
SYMATTR Value 0.1µ
SYMBOL cap 480 -416 R180
WINDOW 0 24 56 Left 2
WINDOW 3 24 8 Left 2
SYMATTR InstName C14
SYMATTR Value 10µ
